Displayed atoms
                    3D
 Schrodinger Suite 2021-3.
 21 21  0  0  1  0            999 V2000
  -25.6589  -35.6982  -11.1350 C   0  0  0  0  0  0
  -24.4851  -35.3094  -10.5005 C   0  0  0  0  0  0
  -23.8350  -36.1885   -9.6426 C   0  0  0  0  0  0
  -24.3586  -37.4564   -9.4191 C   0  0  0  0  0  0
  -25.5325  -37.8451  -10.0537 C   0  0  0  0  0  0
  -26.1826  -36.9660  -10.9116 C   0  0  0  0  0  0
  -22.6694  -35.8025   -9.0125 O   0  0  0  0  0  0
  -22.9917  -35.2246   -7.8274 C   0  0  0  0  0  0
  -24.1457  -35.0948   -7.4349 O   0  0  0  0  0  0
  -21.7366  -34.7973   -7.1259 C   0  0  0  0  0  0
  -23.6569  -38.4052   -8.4932 C   0  0  0  0  0  0
  -22.6220  -38.2065   -7.8670 O   0  0  0  0  0  0
  -24.3499  -39.5707   -8.4346 O   0  0  0  0  0  0
  -26.1651  -35.0137  -11.8030 H   0  0  0  0  0  0
  -24.0774  -34.3223  -10.6745 H   0  0  0  0  0  0
  -25.9401  -38.8322   -9.8797 H   0  0  0  0  0  0
  -27.0965  -37.2687  -11.4056 H   0  0  0  0  0  0
  -20.8725  -35.0548   -7.7382 H   0  0  0  0  0  0
  -21.7595  -33.7195   -6.9646 H   0  0  0  0  0  0
  -21.6660  -35.3070   -6.1650 H   0  0  0  0  0  0
  -23.8989  -40.1580   -7.8498 H   0  0  0  0  0  0
  1  2  2  0  0  0
  1  6  1  0  0  0
  1 14  1  0  0  0
  2  3  1  0  0  0
  2 15  1  0  0  0
  3  4  2  0  0  0
  3  7  1  0  0  0
  4  5  1  0  0  0
  4 11  1  0  0  0
  5  6  2  0  0  0
  5 16  1  0  0  0
  6 17  1  0  0  0
  7  8  1  0  0  0
  8  9  2  0  0  0
  8 10  1  0  0  0
 10 18  1  0  0  0
 10 19  1  0  0  0
 10 20  1  0  0  0
 11 12  2  0  0  0
 11 13  1  0  0  0
 13 21  1  0  0  0
M  END
$$$$
