bcd_gly
                    3D
 Schrodinger Suite 2021-3.
147154  0  0  1  0            999 V2000
  -21.8200  -26.9080  -10.2810 C   0  0  2  0  0  0
  -22.0540  -27.5970   -8.9420 C   0  0  1  0  0  0
  -23.5160  -28.0200   -8.7320 C   0  0  2  0  0  0
  -24.4320  -26.8330   -9.0180 C   0  0  1  0  0  0
  -24.1660  -26.1630  -10.3670 C   0  0  1  0  0  0
  -24.9070  -24.8290  -10.5400 C   0  0  0  0  0  0
  -21.2170  -28.7240   -8.7620 O   0  0  0  0  0  0
  -23.6590  -28.4210   -7.3830 O   0  0  0  0  0  0
  -25.7520  -27.3400   -9.0360 O   0  0  0  0  0  0
  -22.7740  -25.8900  -10.5170 O   0  0  0  0  0  0
  -26.1550  -25.0320  -11.1620 O   0  0  0  0  0  0
  -20.5650  -26.2470  -10.2070 H   0  0  0  0  0  0
  -21.7940  -26.8350   -8.2070 H   0  0  0  0  0  0
  -23.7370  -28.8640   -9.3880 H   0  0  0  0  0  0
  -24.2350  -26.0880   -8.2510 H   0  0  0  0  0  0
  -24.4680  -26.8190  -11.1860 H   0  0  0  0  0  0
  -25.0450  -24.3430   -9.5740 H   0  0  0  0  0  0
  -24.3170  -24.1710  -11.1780 H   0  0  0  0  0  0
  -21.4370  -29.1150   -7.9100 H   0  0  0  0  0  0
  -24.5870  -28.6360   -7.2230 H   0  0  0  0  0  0
  -26.7070  -25.5490  -10.5660 H   0  0  0  0  0  0
  -20.2940  -29.1900  -14.8350 C   0  0  2  0  0  0
  -19.7260  -29.6860  -13.5100 C   0  0  1  0  0  0
  -20.6510  -29.3970  -12.3170 C   0  0  2  0  0  0
  -21.0610  -27.9260  -12.3380 C   0  0  1  0  0  0
  -21.6210  -27.4650  -13.6840 C   0  0  1  0  0  0
  -21.7950  -25.9420  -13.7810 C   0  0  0  0  0  0
  -19.4230  -31.0680  -13.5370 O   0  0  0  0  0  0
  -19.9270  -29.6750  -11.1330 O   0  0  0  0  0  0
  -22.0800  -27.7810  -11.3680 O   0  0  0  0  0  0
  -20.7460  -27.8530  -14.7420 O   0  0  0  0  0  0
  -23.1020  -25.5690  -13.4070 O   0  0  0  0  0  0
  -19.2290  -29.1700  -15.7740 H   0  0  0  0  0  0
  -18.8030  -29.1160  -13.3930 H   0  0  0  0  0  0
  -21.5190  -30.0560  -12.3760 H   0  0  0  0  0  0
  -20.1620  -27.3430  -12.1520 H   0  0  0  0  0  0
  -22.5940  -27.9220  -13.8710 H   0  0  0  0  0  0
  -21.0660  -25.4330  -13.1510 H   0  0  0  0  0  0
  -21.6400  -25.6270  -14.8140 H   0  0  0  0  0  0
  -19.0840  -31.3080  -12.6690 H   0  0  0  0  0  0
  -20.4800  -29.4490  -10.3760 H   0  0  0  0  0  0
  -23.2170  -25.7760  -12.4740 H   0  0  0  0  0  0
  -23.2290  -31.9650  -18.2950 C   0  0  2  0  0  0
  -22.0970  -32.6500  -17.5380 C   0  0  1  0  0  0
  -21.7610  -31.9610  -16.2060 C   0  0  2  0  0  0
  -21.5700  -30.4650  -16.4450 C   0  0  1  0  0  0
  -22.7230  -29.8130  -17.2100 C   0  0  1  0  0  0
  -22.4160  -28.3790  -17.6640 C   0  0  0  0  0  0
  -22.3620  -34.0190  -17.2940 O   0  0  0  0  0  0
  -20.5600  -32.5260  -15.7180 O   0  0  0  0  0  0
  -21.4980  -29.8630  -15.1670 O   0  0  0  0  0  0
  -23.0280  -30.5680  -18.3820 O   0  0  0  0  0  0
  -22.8770  -27.4480  -16.7100 O   0  0  0  0  0  0
  -23.1970  -32.4410  -19.6320 H   0  0  0  0  0  0
  -21.2430  -32.5620  -18.2100 H   0  0  0  0  0  0
  -22.5690  -32.1520  -15.4970 H   0  0  0  0  0  0
  -20.6790  -30.3520  -17.0580 H   0  0  0  0  0  0
  -23.6210  -29.7800  -16.5910 H   0  0  0  0  0  0
  -21.3460  -28.2500  -17.8260 H   0  0  0  0  0  0
  -22.9350  -28.1800  -18.6030 H   0  0  0  0  0  0
  -21.6160  -34.3770  -16.8040 H   0  0  0  0  0  0
  -20.3060  -32.0610  -14.9110 H   0  0  0  0  0  0
  -22.3670  -27.5700  -15.9020 H   0  0  0  0  0  0
  -28.4090  -33.1460  -18.0490 C   0  0  2  0  0  0
  -27.3710  -34.2600  -17.9820 C   0  0  1  0  0  0
  -26.0060  -33.7810  -17.4630 C   0  0  2  0  0  0
  -25.5760  -32.5390  -18.2400 C   0  0  1  0  0  0
  -26.6440  -31.4450  -18.2880 C   0  0  1  0  0  0
  -26.3100  -30.3120  -19.2690 C   0  0  0  0  0  0
  -27.8030  -35.3540  -17.1950 O   0  0  0  0  0  0
  -25.0750  -34.8240  -17.6760 O   0  0  0  0  0  0
  -24.4460  -32.0190  -17.5680 O   0  0  0  0  0  0
  -27.8970  -31.9950  -18.6920 O   0  0  0  0  0  0
  -25.6290  -29.2690  -18.6100 O   0  0  0  0  0  0
  -29.4730  -33.6020  -18.8710 H   0  0  0  0  0  0
  -27.2660  -34.5820  -19.0190 H   0  0  0  0  0  0
  -26.0880  -33.5770  -16.3940 H   0  0  0  0  0  0
  -25.3990  -32.8530  -19.2660 H   0  0  0  0  0  0
  -26.7790  -30.9990  -17.3000 H   0  0  0  0  0  0
  -25.7070  -30.6890  -20.0950 H   0  0  0  0  0  0
  -27.2360  -29.9030  -19.6750 H   0  0  0  0  0  0
  -27.0910  -36.0010  -17.1820 H   0  0  0  0  0  0
  -24.2010  -34.5160  -17.4060 H   0  0  0  0  0  0
  -24.7760  -29.6070  -18.3170 H   0  0  0  0  0  0
  -31.9160  -31.8320  -14.2790 C   0  0  2  0  0  0
  -31.5790  -33.3020  -14.5220 C   0  0  1  0  0  0
  -30.1880  -33.4880  -15.1480 C   0  0  2  0  0  0
  -30.0600  -32.5890  -16.3750 C   0  0  1  0  0  0
  -30.4330  -31.1300  -16.1070 C   0  0  1  0  0  0
  -30.5480  -30.2890  -17.3870 C   0  0  0  0  0  0
  -31.6560  -34.0710  -13.3360 O   0  0  0  0  0  0
  -30.0680  -34.8440  -15.5330 O   0  0  0  0  0  0
  -28.7000  -32.6300  -16.7610 O   0  0  0  0  0  0
  -31.6930  -31.0540  -15.4440 O   0  0  0  0  0  0
  -29.3230  -29.6540  -17.6750 O   0  0  0  0  0  0
  -33.3030  -31.7320  -13.9870 H   0  0  0  0  0  0
  -32.3370  -33.6490  -15.2260 H   0  0  0  0  0  0
  -29.4300  -33.2530  -14.3980 H   0  0  0  0  0  0
  -30.7620  -32.9630  -17.1160 H   0  0  0  0  0  0
  -29.6880  -30.6560  -15.4650 H   0  0  0  0  0  0
  -30.8500  -30.9130  -18.2280 H   0  0  0  0  0  0
  -31.3020  -29.5150  -17.2410 H   0  0  0  0  0  0
  -31.3950  -34.9700  -13.5580 H   0  0  0  0  0  0
  -29.2170  -34.9640  -15.9740 H   0  0  0  0  0  0
  -28.6740  -30.3350  -17.8810 H   0  0  0  0  0  0
  -31.1580  -29.0290   -9.8450 C   0  0  2  0  0  0
  -31.5560  -30.4970   -9.7560 C   0  0  1  0  0  0
  -31.1650  -31.3020  -11.0050 C   0  0  2  0  0  0
  -31.6300  -30.5800  -12.2700 C   0  0  1  0  0  0
  -31.2420  -29.0990  -12.3050 C   0  0  1  0  0  0
  -31.9490  -28.3110  -13.4170 C   0  0  0  0  0  0
  -31.0200  -31.1360   -8.6120 O   0  0  0  0  0  0
  -31.7900  -32.5680  -10.9150 O   0  0  0  0  0  0
  -31.0140  -31.2270  -13.3640 O   0  0  0  0  0  0
  -31.5580  -28.4530  -11.0730 O   0  0  0  0  0  0
  -31.1840  -28.3300  -14.6010 O   0  0  0  0  0  0
  -31.8800  -28.3300   -8.8420 H   0  0  0  0  0  0
  -32.6440  -30.4680   -9.6770 H   0  0  0  0  0  0
  -30.0800  -31.4310  -11.0150 H   0  0  0  0  0  0
  -32.7170  -30.6480  -12.3190 H   0  0  0  0  0  0
  -30.1650  -29.0070  -12.4640 H   0  0  0  0  0  0
  -32.9390  -28.7260  -13.6060 H   0  0  0  0  0  0
  -32.0610  -27.2720  -13.1040 H   0  0  0  0  0  0
  -31.2920  -32.0580   -8.6420 H   0  0  0  0  0  0
  -31.5930  -33.0670  -11.7180 H   0  0  0  0  0  0
  -31.1430  -29.2400  -14.9140 H   0  0  0  0  0  0
  -26.6530  -26.8340   -8.0630 C   0  0  2  0  0  0
  -27.3150  -27.9590   -7.2760 C   0  0  1  0  0  0
  -28.1920  -28.8690   -8.1510 C   0  0  2  0  0  0
  -29.1440  -28.0100   -8.9790 C   0  0  1  0  0  0
  -28.4460  -26.8880   -9.7500 C   0  0  1  0  0  0
  -29.4230  -25.8790  -10.3700 C   0  0  0  0  0  0
  -26.3770  -28.7570   -6.5790 O   0  0  0  0  0  0
  -28.9320  -29.7130   -7.2900 O   0  0  0  0  0  0
  -29.7490  -28.8750   -9.9190 O   0  0  0  0  0  0
  -27.5830  -26.1540   -8.8840 O   0  0  0  0  0  0
  -29.7560  -26.2560  -11.6870 O   0  0  0  0  0  0
  -26.1940  -25.8720   -7.1260 H   0  0  0  0  0  0
  -27.9490  -27.4370   -6.5580 H   0  0  0  0  0  0
  -27.5440  -29.4750   -8.7880 H   0  0  0  0  0  0
  -29.8300  -27.5350   -8.2820 H   0  0  0  0  0  0
  -27.8380  -27.3000  -10.5580 H   0  0  0  0  0  0
  -30.3260  -25.8020   -9.7640 H   0  0  0  0  0  0
  -28.9490  -24.8980  -10.4120 H   0  0  0  0  0  0
  -26.8670  -29.4540   -6.1310 H   0  0  0  0  0  0
  -29.5340  -30.2460   -7.8250 H   0  0  0  0  0  0
  -30.2380  -27.0890  -11.6450 H   0  0  0  0  0  0
  1  2  1  0  0  0
  1 10  1  0  0  0
  1 30  1  0  0  0
  1 12  1  0  0  0
  2  3  1  0  0  0
  2  7  1  0  0  0
  2 13  1  0  0  0
  3  4  1  0  0  0
  3  8  1  0  0  0
  3 14  1  0  0  0
  4  5  1  0  0  0
  4  9  1  0  0  0
  4 15  1  0  0  0
  5  6  1  0  0  0
  5 10  1  0  0  0
  5 16  1  0  0  0
  6 11  1  0  0  0
  6 17  1  0  0  0
  6 18  1  0  0  0
  7 19  1  0  0  0
  8 20  1  0  0  0
  9127  1  0  0  0
 11 21  1  0  0  0
 22 23  1  0  0  0
 22 31  1  0  0  0
 22 51  1  0  0  0
 22 33  1  0  0  0
 23 24  1  0  0  0
 23 28  1  0  0  0
 23 34  1  0  0  0
 24 25  1  0  0  0
 24 29  1  0  0  0
 24 35  1  0  0  0
 25 26  1  0  0  0
 25 30  1  0  0  0
 25 36  1  0  0  0
 26 27  1  0  0  0
 26 31  1  0  0  0
 26 37  1  0  0  0
 27 32  1  0  0  0
 27 38  1  0  0  0
 27 39  1  0  0  0
 28 40  1  0  0  0
 29 41  1  0  0  0
 32 42  1  0  0  0
 43 44  1  0  0  0
 43 52  1  0  0  0
 43 72  1  0  0  0
 43 54  1  0  0  0
 44 45  1  0  0  0
 44 49  1  0  0  0
 44 55  1  0  0  0
 45 46  1  0  0  0
 45 50  1  0  0  0
 45 56  1  0  0  0
 46 47  1  0  0  0
 46 51  1  0  0  0
 46 57  1  0  0  0
 47 48  1  0  0  0
 47 52  1  0  0  0
 47 58  1  0  0  0
 48 53  1  0  0  0
 48 59  1  0  0  0
 48 60  1  0  0  0
 49 61  1  0  0  0
 50 62  1  0  0  0
 53 63  1  0  0  0
 64 65  1  0  0  0
 64 73  1  0  0  0
 64 93  1  0  0  0
 64 75  1  0  0  0
 65 66  1  0  0  0
 65 70  1  0  0  0
 65 76  1  0  0  0
 66 67  1  0  0  0
 66 71  1  0  0  0
 66 77  1  0  0  0
 67 68  1  0  0  0
 67 72  1  0  0  0
 67 78  1  0  0  0
 68 69  1  0  0  0
 68 73  1  0  0  0
 68 79  1  0  0  0
 69 74  1  0  0  0
 69 80  1  0  0  0
 69 81  1  0  0  0
 70 82  1  0  0  0
 71 83  1  0  0  0
 74 84  1  0  0  0
 85 86  1  0  0  0
 85 94  1  0  0  0
 85114  1  0  0  0
 85 96  1  0  0  0
 86 87  1  0  0  0
 86 91  1  0  0  0
 86 97  1  0  0  0
 87 88  1  0  0  0
 87 92  1  0  0  0
 87 98  1  0  0  0
 88 89  1  0  0  0
 88 93  1  0  0  0
 88 99  1  0  0  0
 89 90  1  0  0  0
 89 94  1  0  0  0
 89100  1  0  0  0
 90 95  1  0  0  0
 90101  1  0  0  0
 90102  1  0  0  0
 91103  1  0  0  0
 92104  1  0  0  0
 95105  1  0  0  0
106107  1  0  0  0
106115  1  0  0  0
106135  1  0  0  0
106117  1  0  0  0
107108  1  0  0  0
107112  1  0  0  0
107118  1  0  0  0
108109  1  0  0  0
108113  1  0  0  0
108119  1  0  0  0
109110  1  0  0  0
109114  1  0  0  0
109120  1  0  0  0
110111  1  0  0  0
110115  1  0  0  0
110121  1  0  0  0
111116  1  0  0  0
111122  1  0  0  0
111123  1  0  0  0
112124  1  0  0  0
113125  1  0  0  0
116126  1  0  0  0
127128  1  0  0  0
127136  1  0  0  0
127138  1  0  0  0
128129  1  0  0  0
128133  1  0  0  0
128139  1  0  0  0
129130  1  0  0  0
129134  1  0  0  0
129140  1  0  0  0
130131  1  0  0  0
130135  1  0  0  0
130141  1  0  0  0
131132  1  0  0  0
131136  1  0  0  0
131142  1  0  0  0
132137  1  0  0  0
132143  1  0  0  0
132144  1  0  0  0
133145  1  0  0  0
134146  1  0  0  0
137147  1  0  0  0
M  END
$$$$
