phenol
                    3D
 Schrodinger Suite 2021-3.
 13 13  0  0  1  0            999 V2000
   -2.7797    0.0000   -0.0000 C   0  0  0  0  0  0
   -2.0847    1.2036   -0.0000 C   0  0  0  0  0  0
   -0.6949    1.2036    0.0000 C   0  0  0  0  0  0
    0.0000    0.0000    0.0000 C   0  0  0  0  0  0
   -0.6949   -1.2036   -0.0000 C   0  0  0  0  0  0
   -2.0847   -1.2036   -0.0000 C   0  0  0  0  0  0
    1.3800    0.0000    0.0000 O   0  0  0  0  0  0
   -3.8617    0.0000   -0.0000 H   0  0  0  0  0  0
   -2.6258    2.1407   -0.0000 H   0  0  0  0  0  0
   -0.1539    2.1407    0.0000 H   0  0  0  0  0  0
   -0.1539   -2.1407   -0.0000 H   0  0  0  0  0  0
   -2.6258   -2.1407   -0.0000 H   0  0  0  0  0  0
    1.8026   -0.9063   -0.0000 H   0  0  0  0  0  0
  1  2  2  0  0  0
  1  6  1  0  0  0
  1  8  1  0  0  0
  2  3  1  0  0  0
  2  9  1  0  0  0
  3  4  2  0  0  0
  3 10  1  0  0  0
  4  5  1  0  0  0
  4  7  1  0  0  0
  5  6  2  0  0  0
  5 11  1  0  0  0
  6 12  1  0  0  0
  7 13  1  0  0  0
M  END
$$$$
